
 ANSYS Academic Teaching Advanced                  


 *------------------------------------------------------------------*
 |                                                                  |
 |   W E L C O M E   T O   T H E   A N S Y S (R)  P R O G R A M     |
 |                                                                  |
 *------------------------------------------------------------------*




 ***************************************************************
 *            ANSYS Release 18.0     LEGAL NOTICES             *
 ***************************************************************
 *                                                             *
 * Copyright 2016 SAS IP, Inc.  All rights reserved.           *
 * Unauthorized use, distribution or duplication is            *
 * prohibited.                                                 *
 *                                                             *
 * Ansys is a registered trademark of ANSYS, Inc. or its       *
 * subsidiaries in the United States or other countries.       *
 * See the ANSYS, Inc. online documentation or the ANSYS, Inc. *
 * documentation CD or online help for the complete Legal      *
 * Notice.                                                     *
 *                                                             *
 ***************************************************************
 *                                                             *
 * THIS ANSYS SOFTWARE PRODUCT AND PROGRAM DOCUMENTATION       *
 * INCLUDE TRADE SECRETS AND CONFIDENTIAL AND PROPRIETARY      *
 * PRODUCTS OF ANSYS, INC., ITS SUBSIDIARIES, OR LICENSORS.    *
 * The software products and documentation are furnished by    *
 * ANSYS, Inc. or its subsidiaries under a software license    *
 * agreement that contains provisions concerning               *
 * non-disclosure, copying, length and nature of use,          *
 * compliance with exporting laws, warranties, disclaimers,    *
 * limitations of liability, and remedies, and other           *
 * provisions.  The software products and documentation may be *
 * used, disclosed, transferred, or copied only in accordance  *
 * with the terms and conditions of that software license      *
 * agreement.                                                  *
 *                                                             *
 * ANSYS, Inc. is a UL registered                              *
 * ISO 9001:2008 company.                                      *
 *                                                             *
 ***************************************************************
 *                                                             *
 * This product is subject to U.S. laws governing export and   *
 * re-export.                                                  *
 *                                                             *
 * For U.S. Government users, except as specifically granted   *
 * by the ANSYS, Inc. software license agreement, the use,     *
 * duplication, or disclosure by the United States Government  *
 * is subject to restrictions stated in the ANSYS, Inc.        *
 * software license agreement and FAR 12.212 (for non-DOD      *
 * licenses).                                                  *
 *                                                             *
 ***************************************************************

 Release 18.0
     
 Point Releases and Patches installed:   
     
 ANSYS, Inc. Products Release 18.0   
 ANSYS Mechanical Products Release 18.0  
 ANSYS Customization Files for User Programmable Features Release 18.0   
 ANSYS Autodyn Release 18.0  
 ANSYS LS-DYNA Release 18.0  
 ANSYS AIM Release 18.0  
 ANSYS CFX (includes ANSYS CFD-Post) Release 18.0
 ANSYS Fluent (includes ANSYS CFD-Post) Release 18.0 
 ANSYS TurboGrid Release 18.0
 ANSYS FENSAP-ICE Release 18.0   
 ANSYS Polyflow (includes ANSYS CFD-Post) Release 18.0   
 ANSYS CFD-Post only Release 18.0
 ANSYS Forte Release 18.0
 ANSYS Chemkin Release 18.0  
 ANSYS ICEM CFD Release 18.0 
 ANSYS Aqwa Release 18.0 
 ANSYS Viewer Release 18.0   
 ANSYS Icepak (includes ANSYS CFD-Post) Release 18.0 
 AutoCAD Release 18.0
 ACIS Release 18.0   
 Catia, Version 4 Release 18.0   
 Catia, Version 5 Release 18.0   
 Catia, Version 6 Release 18.0   
 Creo Elements/Direct Modeling Release 18.0  
 Inventor Release 18.0   
 JTOpen Release 18.0 
 NX Release 18.0 
 Parasolid Release 18.0  
 Creo Parametric (formerly Pro/ENGINEER) Release 18.0
 Solid Edge Release 18.0 
 SolidWorks Release 18.0 
 ANSYS, Inc. License Manager Release 18.0


          *****  ANSYS COMMAND LINE ARGUMENTS  *****
  BATCH MODE REQUESTED (-b)    = NOLIST
  INPUT FILE COPY MODE (-c)    = COPY
  DISTRIBUTED MEMORY PARALLEL REQUESTED
       2 PARALLEL PROCESSES REQUESTED WITH SINGLE THREAD PER PROCESS
    TOTAL OF     2 CORES REQUESTED
  DESIGNXPLORER REQUESTED
  MPI OPTION                   = INTELMPI
  INPUT FILE NAME              = C:\Users\Devang Goyal\Desktop\Thesis Work\_ProjectScratch\Scr378B\dummy.dat
  OUTPUT FILE NAME             = C:\Users\Devang Goyal\Desktop\Thesis Work\_ProjectScratch\Scr378B\solve.out
  START-UP FILE MODE           = NOREAD
  STOP FILE MODE               = NOREAD

 RELEASE= Release 18.0         BUILD= 18.0      UP20161219   VERSION=WINDOWS x64 
 CURRENT JOBNAME=file0  16:12:51  SEP 23, 2019 CP=      0.312


 PARAMETER _DS_PROGRESS =     999.0000000    

 /INPUT FILE= ds.dat  LINE=       0

 *GET  _WALLSTRT  FROM  ACTI  ITEM=TIME WALL  VALUE=  16.2141667    

 TITLE= 
 I Beam Modal Analsys--Modal (A5)                                              


 SET PARAMETER DIMENSIONS ON  _WB_PROJECTSCRATCH_DIR
  TYPE=STRI  DIMENSIONS=      248        1        1

 PARAMETER _WB_PROJECTSCRATCH_DIR(1) = C:\Users\Devang Goyal\Desktop\Thesis Work\_ProjectScratch\Scr378B\

 SET PARAMETER DIMENSIONS ON  _WB_SOLVERFILES_DIR
  TYPE=STRI  DIMENSIONS=      248        1        1

 PARAMETER _WB_SOLVERFILES_DIR(1) = C:\Users\Devang Goyal\Desktop\Thesis Work\I Beam Modal Analsys_files\dp0\SYS\MECH\

 SET PARAMETER DIMENSIONS ON  _WB_USERFILES_DIR
  TYPE=STRI  DIMENSIONS=      248        1        1

 PARAMETER _WB_USERFILES_DIR(1) = C:\Users\Devang Goyal\Desktop\Thesis Work\I Beam Modal Analsys_files\user_files\
 --- Data in consistent MKS units. See Solving Units in the help system for more

 MKS UNITS SPECIFIED FOR INTERNAL    
  LENGTH        (l)  = METER (M)
  MASS          (M)  = KILOGRAM (KG)
  TIME          (t)  = SECOND (SEC)
  TEMPERATURE   (T)  = CELSIUS (C)
  TOFFSET            = 273.0
  CHARGE        (Q)  = COULOMB
  FORCE         (f)  = NEWTON (N) (KG-M/SEC2)
  HEAT               = JOULE (N-M)

  PRESSURE           = PASCAL (NEWTON/M**2)
  ENERGY        (W)  = JOULE (N-M)
  POWER         (P)  = WATT (N-M/SEC)
  CURRENT       (i)  = AMPERE (COULOMBS/SEC)
  CAPACITANCE   (C)  = FARAD
  INDUCTANCE    (L)  = HENRY
  MAGNETIC FLUX      = WEBER
  RESISTANCE    (R)  = OHM
  ELECTRIC POTENTIAL = VOLT

 INPUT  UNITS ARE ALSO SET TO MKS 

 *** ANSYS - ENGINEERING ANALYSIS SYSTEM  RELEASE Release 18.0     18.0     ***
 DISTRIBUTED ANSYS Academic Teaching Advanced                  

 00412669  VERSION=WINDOWS x64   16:12:51  SEP 23, 2019 CP=      0.516

 I Beam Modal Analsys--Modal (A5)                                              



          ***** ANSYS ANALYSIS DEFINITION (PREP7) *****
 *********** Nodes for the whole assembly ***********
 *********** Elements for Body 1 "Solid" ***********
 *********** Send User Defined Coordinate System(s) ***********
 *********** Set Reference Temperature ***********
 *********** Send Materials ***********
 *********** Fixed Supports ***********


 ***** ROUTINE COMPLETED *****  CP =         0.703


 --- Number of total nodes = 20975
 --- Number of contact elements = 0
 --- Number of spring elements = 0
 --- Number of bearing elements = 0
 --- Number of solid elements = 3840
 --- Number of total elements = 3840

 *GET  _WALLBSOL  FROM  ACTI  ITEM=TIME WALL  VALUE=  16.2141667    

 *****  ANSYS SOLUTION ROUTINE  *****


 PERFORM A MODAL ANALYSIS
  THIS WILL BE A NEW ANALYSIS


 USE SYM. BLOCK LANCZOS MODE EXTRACTION METHOD
  EXTRACT    6 MODES
  NORMALIZE THE MODE SHAPES TO THE MASS MATRIX

 ERASE THE CURRENT DATABASE OUTPUT CONTROL TABLE.


 WRITE ALL  ITEMS TO THE DATABASE WITH A FREQUENCY OF NONE
   FOR ALL APPLICABLE ENTITIES

 WRITE NSOL ITEMS TO THE DATABASE WITH A FREQUENCY OF ALL 
   FOR ALL APPLICABLE ENTITIES


 EXPAND ALL EXTRACTED MODES
  DO NOT CALCULATE ELEMENT RESULTS

 *GET  ANSINTER_  FROM  ACTI  ITEM=INT        VALUE=  0.00000000    

 *IF  ANSINTER_                         ( =   0.00000     )  NE  
      0                                 ( =   0.00000     )  THEN    

 *ENDIF

 *****  ANSYS SOLVE    COMMAND  *****

 *** WARNING ***                         CP =       0.734   TIME= 16:12:51
 Element shape checking is currently inactive.  Issue SHPP,ON or         
 SHPP,WARN to reactivate, if desired.                                    

 *** NOTE ***                            CP =       0.734   TIME= 16:12:51
 The model data was checked and warning messages were found.             
  Please review output or errors file ( C:\Users\Devang                  
 Goyal\Desktop\Thesis Work\_ProjectScratch\Scr378B\file0.err ) for       
 these warning messages.                                                 

 *** SELECTION OF ELEMENT TECHNOLOGIES FOR APPLICABLE ELEMENTS ***
      --- GIVE SUGGESTIONS AND RESET THE KEY OPTIONS ---

 ELEMENT TYPE    1 IS SOLID186. KEYOPT(2)=0 IS SUGGESTED AND HAS BEEN RESET.
  KEYOPT(1-12)=    0    0    0    0    0    0    0    0    0    0    0    0



 *** ANSYS - ENGINEERING ANALYSIS SYSTEM  RELEASE Release 18.0     18.0     ***
 DISTRIBUTED ANSYS Academic Teaching Advanced                  

 00412669  VERSION=WINDOWS x64   16:12:51  SEP 23, 2019 CP=      0.766

 I Beam Modal Analsys--Modal (A5)                                              



                       S O L U T I O N   O P T I O N S

   PROBLEM DIMENSIONALITY. . . . . . . . . . . . .3-D                  
   DEGREES OF FREEDOM. . . . . . UX   UY   UZ  
   ANALYSIS TYPE . . . . . . . . . . . . . . . . .MODAL                
      EXTRACTION METHOD. . . . . . . . . . . . . .BLOCK LANCZOS
   OFFSET TEMPERATURE FROM ABSOLUTE ZERO . . . . .  273.15    
   NUMBER OF MODES TO EXTRACT. . . . . . . . . . .     6
   GLOBALLY ASSEMBLED MATRIX . . . . . . . . . . .SYMMETRIC  
   NUMBER OF MODES TO EXPAND . . . . . . . . . . .ALL
   ELEMENT RESULTS CALCULATION . . . . . . . . . .OFF

 *** NOTE ***                            CP =       0.766   TIME= 16:12:51
 The conditions for direct assembly have been met.  No .emat or .erot    
 files will be produced.                                                 

  
  
     D I S T R I B U T E D   D O M A I N   D E C O M P O S E R
  
  ...Number of elements: 3840
  ...Number of nodes:    20975
  ...Decompose to 2 CPU domains
  ...Element load balance ratio =     1.000


                      L O A D   S T E P   O P T I O N S

   LOAD STEP NUMBER. . . . . . . . . . . . . . . .     1
   THERMAL STRAINS INCLUDED IN THE LOAD VECTOR . .   YES
   PRINT OUTPUT CONTROLS . . . . . . . . . . . . .NO PRINTOUT
   DATABASE OUTPUT CONTROLS
      ITEM     FREQUENCY   COMPONENT
       ALL       NONE               
      NSOL        ALL               



                         ***********  PRECISE MASS SUMMARY  ***********

   TOTAL RIGID BODY MASS MATRIX ABOUT ORIGIN
               Translational mass               |   Coupled translational/rotational mass
         16.239        0.0000        0.0000     |     0.0000        4.8717       -1.6499    
         0.0000        16.239        0.0000     |    -4.8717        0.0000       0.85001E-16
         0.0000        0.0000        16.239     |     1.6499      -0.91290E-16    0.0000    
     ------------------------------------------ | ------------------------------------------
                                                |         Rotational mass (inertia)
                                                |     2.2284      -0.16371E-16  -0.28623E-16
                                                |   -0.16643E-16    1.9576      -0.49496    
                                                |   -0.29816E-16  -0.49496       0.28864    

   TOTAL MASS =  16.239    
     The mass principal axes coincide with the global Cartesian axes

   CENTER OF MASS (X,Y,Z)=   0.52344E-17   0.10160       0.30000    

   TOTAL INERTIA ABOUT CENTER OF MASS
        0.59925      -0.70964E-17  -0.31225E-17
       -0.70964E-17   0.49610       0.75344E-14
       -0.31225E-17   0.75344E-14   0.12101    
     The inertia principal axes coincide with the global Cartesian axes


  *** MASS SUMMARY BY ELEMENT TYPE ***

  TYPE      MASS
     1   16.2389    

 Range of element maximum matrix coefficients in global coordinates
 Maximum = 1.584088227E+10 at element 2437.                              
 Minimum = 2.698078103E+09 at element 3298.                              

   *** ELEMENT MATRIX FORMULATION TIMES
     TYPE    NUMBER   ENAME      TOTAL CP  AVE CP

        1      3840  SOLID186      1.047   0.000273
 Time at end of element matrix formulation CP = 1.703125.                

  BLOCK LANCZOS CALCULATION OF UP TO    6 EIGENVECTORS.
  NUMBER OF EQUATIONS              =        61800
  MAXIMUM WAVEFRONT                =          180
  MAXIMUM MODES STORED             =            6
  MINIMUM EIGENVALUE               =  0.00000E+00
  MAXIMUM EIGENVALUE               =  0.10000E+31


  Local memory allocated for solver              =    230.662 MB
  Local memory required for in-core solution     =    219.763 MB
  Local memory required for out-of-core solution =     69.554 MB

  Total memory allocated for solver              =    445.680 MB
  Total memory required for in-core solution     =    424.612 MB
  Total memory required for out-of-core solution =    134.993 MB

 *** NOTE ***                            CP =       4.297   TIME= 16:12:55
 The Distributed Sparse Matrix Solver used by the Block Lanczos          
 eigensolver is currently running in the in-core memory mode.  This      
 memory mode uses the most amount of memory in order to avoid using the  
 hard drive as much as possible, which most often results in the         
 fastest solution time.  This mode is recommended if enough physical     
 memory is present to accommodate all of the solver data.                

 *** ANSYS - ENGINEERING ANALYSIS SYSTEM  RELEASE Release 18.0     18.0     ***
 DISTRIBUTED ANSYS Academic Teaching Advanced                  

 00412669  VERSION=WINDOWS x64   16:12:58  SEP 23, 2019 CP=      7.344

 I Beam Modal Analsys--Modal (A5)                                              



 *** FREQUENCIES FROM BLOCK LANCZOS ITERATION ***

  MODE    FREQUENCY (HERTZ)      


    1     177.0757264129    
    2     223.2603036544    
    3     429.1869991195    
    4     502.6778187350    
    5     658.6663343712    
    6     810.6420309681    

 *** ANSYS - ENGINEERING ANALYSIS SYSTEM  RELEASE Release 18.0     18.0     ***
 DISTRIBUTED ANSYS Academic Teaching Advanced                  

 00412669  VERSION=WINDOWS x64   16:12:58  SEP 23, 2019 CP=      7.422

 I Beam Modal Analsys--Modal (A5)                                              





          ***** PARTICIPATION FACTOR CALCULATION *****  X  DIRECTION
                                                                                  CUMULATIVE     RATIO EFF.MASS
  MODE   FREQUENCY       PERIOD      PARTIC.FACTOR     RATIO    EFFECTIVE MASS   MASS FRACTION   TO TOTAL MASS
     1     177.076       0.56473E-02    3.1604        1.000000     9.98815        0.872923        0.615074    
     2     223.260       0.44791E-02    0.0000        0.000000     0.00000        0.872923         0.00000    
     3     429.187       0.23300E-02   0.16764E-01    0.005305    0.281045E-03    0.872947        0.173068E-04
     4     502.678       0.19893E-02    0.0000        0.000000     0.00000        0.872947         0.00000    
     5     658.666       0.15182E-02   -1.2057        0.381508     1.45376         1.00000        0.895232E-01
     6     810.642       0.12336E-02    0.0000        0.000000     0.00000         1.00000         0.00000    
 -----------------------------------------------------------------------------------------------------------------
   sum                                                             11.4422                        0.704615    
 -----------------------------------------------------------------------------------------------------------------



          ***** PARTICIPATION FACTOR CALCULATION *****  Y  DIRECTION
                                                                                  CUMULATIVE     RATIO EFF.MASS
  MODE   FREQUENCY       PERIOD      PARTIC.FACTOR     RATIO    EFFECTIVE MASS   MASS FRACTION   TO TOTAL MASS
     1     177.076       0.56473E-02    0.0000        0.000000     0.00000         0.00000         0.00000    
     2     223.260       0.44791E-02    0.0000        0.000000     0.00000         0.00000         0.00000    
     3     429.187       0.23300E-02    0.0000        0.000000     0.00000         0.00000         0.00000    
     4     502.678       0.19893E-02    3.2930        1.000000     10.8440         1.00000        0.667780    
     5     658.666       0.15182E-02    0.0000        0.000000     0.00000         1.00000         0.00000    
     6     810.642       0.12336E-02    0.0000        0.000000     0.00000         1.00000         0.00000    
 -----------------------------------------------------------------------------------------------------------------
   sum                                                             10.8440                        0.667780    
 -----------------------------------------------------------------------------------------------------------------



          ***** PARTICIPATION FACTOR CALCULATION *****  Z  DIRECTION
                                                                                  CUMULATIVE     RATIO EFF.MASS
  MODE   FREQUENCY       PERIOD      PARTIC.FACTOR     RATIO    EFFECTIVE MASS   MASS FRACTION   TO TOTAL MASS
     1     177.076       0.56473E-02    0.0000        0.000000     0.00000         0.00000         0.00000    
     2     223.260       0.44791E-02    0.0000        0.000000     0.00000         0.00000         0.00000    
     3     429.187       0.23300E-02    0.0000        0.000000     0.00000         0.00000         0.00000    
     4     502.678       0.19893E-02    0.0000        0.000000     0.00000         0.00000         0.00000    
     5     658.666       0.15182E-02    0.0000        0.000000     0.00000         0.00000         0.00000    
     6     810.642       0.12336E-02    0.0000        0.000000     0.00000         0.00000         0.00000    



          ***** PARTICIPATION FACTOR CALCULATION *****ROTX DIRECTION
                                                                                  CUMULATIVE     RATIO EFF.MASS
  MODE   FREQUENCY       PERIOD      PARTIC.FACTOR     RATIO    EFFECTIVE MASS   MASS FRACTION   TO TOTAL MASS
     1     177.076       0.56473E-02    0.0000        0.000000     0.00000         0.00000         0.00000    
     2     223.260       0.44791E-02    0.0000        0.000000     0.00000         0.00000         0.00000    
     3     429.187       0.23300E-02    0.0000        0.000000     0.00000         0.00000         0.00000    
     4     502.678       0.19893E-02   -1.4252        1.000000     2.03114         1.00000        0.911488    
     5     658.666       0.15182E-02    0.0000        0.000000     0.00000         1.00000         0.00000    
     6     810.642       0.12336E-02    0.0000        0.000000     0.00000         1.00000         0.00000    
 -----------------------------------------------------------------------------------------------------------------
   sum                                                             2.03114                        0.911488    
 -----------------------------------------------------------------------------------------------------------------



          ***** PARTICIPATION FACTOR CALCULATION *****ROTY DIRECTION
                                                                                  CUMULATIVE     RATIO EFF.MASS
  MODE   FREQUENCY       PERIOD      PARTIC.FACTOR     RATIO    EFFECTIVE MASS   MASS FRACTION   TO TOTAL MASS
     1     177.076       0.56473E-02    1.3753        1.000000     1.89152        0.983666        0.966245    
     2     223.260       0.44791E-02    0.0000        0.000000     0.00000        0.983666         0.00000    
     3     429.187       0.23300E-02   0.94704E-01    0.068860    0.896892E-02    0.988331        0.458158E-02
     4     502.678       0.19893E-02    0.0000        0.000000     0.00000        0.988331         0.00000    
     5     658.666       0.15182E-02  -0.14980        0.108918    0.224394E-01     1.00000        0.114627E-01
     6     810.642       0.12336E-02    0.0000        0.000000     0.00000         1.00000         0.00000    
 -----------------------------------------------------------------------------------------------------------------
   sum                                                             1.92293                        0.982289    
 -----------------------------------------------------------------------------------------------------------------



          ***** PARTICIPATION FACTOR CALCULATION *****ROTZ DIRECTION
                                                                                  CUMULATIVE     RATIO EFF.MASS
  MODE   FREQUENCY       PERIOD      PARTIC.FACTOR     RATIO    EFFECTIVE MASS   MASS FRACTION   TO TOTAL MASS
     1     177.076       0.56473E-02  -0.32110        1.000000    0.103103        0.532532        0.357209    
     2     223.260       0.44791E-02   0.27419        0.853916    0.751801E-01    0.920840        0.260467    
     3     429.187       0.23300E-02  -0.17033E-02    0.005305    0.290110E-05    0.920855        0.100511E-04
     4     502.678       0.19893E-02    0.0000        0.000000     0.00000        0.920855         0.00000    
     5     658.666       0.15182E-02   0.12250        0.381508    0.150065E-01    0.998364        0.519912E-01
     6     810.642       0.12336E-02  -0.17798E-01    0.055428    0.316765E-03     1.00000        0.109746E-02
 -----------------------------------------------------------------------------------------------------------------
   sum                                                            0.193610                        0.670774    
 -----------------------------------------------------------------------------------------------------------------


 *** ANSYS BINARY FILE STATISTICS
  BUFFER SIZE USED= 16384
       33.188 MB WRITTEN ON ASSEMBLED MATRIX FILE: file0.full
        2.125 MB WRITTEN ON MODAL MATRIX FILE: file0.mode
        3.625 MB WRITTEN ON RESULTS FILE: file0.rst
 *************** Write FE CONNECTORS *********

 WRITE OUT CONSTRAINT EQUATIONS TO FILE= file.ce                                                                                                                                                                                                                                                             

 *GET  _NMODALSOLPROC  FROM  ACTI  ITEM=NUMC       VALUE=  2.00000000    

 FINISH SOLUTION PROCESSING


 ***** ROUTINE COMPLETED *****  CP =         7.875



 PRINTOUT RESUMED BY /GOP

 *GET  _WALLASOL  FROM  ACTI  ITEM=TIME WALL  VALUE=  16.2163889    

 *** ANSYS - ENGINEERING ANALYSIS SYSTEM  RELEASE Release 18.0     18.0     ***
 DISTRIBUTED ANSYS Academic Teaching Advanced                  

 00412669  VERSION=WINDOWS x64   16:12:59  SEP 23, 2019 CP=      7.891

 I Beam Modal Analsys--Modal (A5)                                              



          ***** ANSYS RESULTS INTERPRETATION (POST1) *****

 *** NOTE ***                            CP =       7.891   TIME= 16:12:59
 Reading results into the database (SET command) will update the current 
 displacement and force boundary conditions in the database with the     
 values from the results file for that load set.  Note that any          
 subsequent solutions will use these values unless action is taken to    
 either SAVE the current values or not overwrite them (/EXIT,NOSAVE).    

 PRINTOUT RESUMED BY /GOP

 Set Encoding of XML File to:ISO-8859-1

 Set Output of XML File to:
     PARM,     ,     ,     ,     ,     ,     ,     ,     ,     ,     ,     ,
         ,     ,     ,     ,     ,     ,     ,

 DATABASE WRITTEN ON FILE  parm.xml                                                                                                                                                                                                                                                            

 EXIT THE ANSYS POST1 DATABASE PROCESSOR


 ***** ROUTINE COMPLETED *****  CP =         8.031



 PRINTOUT RESUMED BY /GOP

 *GET  _WALLDONE  FROM  ACTI  ITEM=TIME WALL  VALUE=  16.2163889    

 PARAMETER _PREPTIME =     0.000000000    

 PARAMETER _SOLVTIME =     8.000000000    

 PARAMETER _POSTTIME =     0.000000000    

 PARAMETER _TOTALTIM =     8.000000000    

 EXIT ANSYS WITHOUT SAVING DATABASE


 NUMBER OF WARNING MESSAGES ENCOUNTERED=          1
 NUMBER OF ERROR   MESSAGES ENCOUNTERED=          0

+--------- D I S T R I B U T E D   A N S Y S   S T A T I S T I C S ------------+

Release: Release 18.0       Build: 18.0       Update: UP20161219   Platform: WINDOWS x64 
Date Run: 09/23/2019   Time: 16:12     Process ID: 8052
Operating System: Windows 10  (Build: 18362)

Processor Model: Intel(R) Core(TM) i5-5200U CPU @ 2.20GHz

Compiler: Intel(R) FORTRAN Compiler Version 15.0.7  (Build: 20160518)
          Intel(R) C/C++ Compiler Version 15.0.7  (Build: 20160518)
          Intel(R) Math Kernel Library Version 11.3.3 Product Build 20160413

Number of machines requested            :    1
Total number of cores available         :    4
Number of physical cores available      :    2
Number of processes requested           :    2
Number of threads per process requested :    1
Total number of cores requested         :    2 (Distributed Memory Parallel)               
MPI Type: INTELMPI
MPI Version: Intel(R) MPI Library 5.1.3 for Windows* OS


GPU Acceleration: Not Requested

Job Name: file0
Input File: dummy.dat

  Core                Machine Name   Working Directory
  ----------------------------------------------------
     0             DESKTOP-H0M0ENE   C:\Users\Devang Goyal\Desktop\Thesis Work\_ProjectScratch\Scr378B
     1             DESKTOP-H0M0ENE   C:\Users\Devang Goyal\Desktop\Thesis Work\_ProjectScratch\Scr378B
 
Latency time from master to core    1 =    2.190 microseconds
 
Communication speed from master to core    1 =  2852.76 MB/sec

Total CPU time for main thread                    :        7.7 seconds
Total CPU time summed for all threads             :        8.1 seconds

Elapsed time spent pre-processing model (/PREP7)  :        0.1 seconds
Elapsed time spent solution - preprocessing       :        0.1 seconds
Elapsed time spent computing solution             :        6.7 seconds
Elapsed time spent solution - postprocessing      :        0.5 seconds
Elapsed time spent post-processing model (/POST1) :        0.1 seconds
 
Eigensolver used                                  :            Block Lanczos
Equation solver computational rate                :    18396.2 Mflops
Equation solver effective I/O rate                :     9845.8 MB/sec

Maximum total memory used                         :      715.0 MB
Maximum total memory allocated                    :     3136.0 MB
Total physical memory available                   :          8 GB

+------ E N D   D I S T R I B U T E D   A N S Y S   S T A T I S T I C S -------+


 *---------------------------------------------------------------------------*
 |                                                                           |
 |                       DISTRIBUTED ANSYS RUN COMPLETED                     |
 |                                                                           |
 |---------------------------------------------------------------------------|
 |                                                                           |
 | Ansys Release 18.0          Build 18.0         UP20161219     WINDOWS x64 |
 |                                                                           |
 |---------------------------------------------------------------------------|
 |                                                                           |
 | Database Requested(-db)  1024 MB    Scratch Memory Requested      1024 MB |
 | Maximum Database Used       8 MB    Maximum Scratch Memory Used    385 MB |
 |                                                                           |
 |---------------------------------------------------------------------------|
 |                                                                           |
 |        CP Time      (sec) =          8.078       Time  =  16:12:59        |
 |        Elapsed Time (sec) =         10.000       Date  =  09/23/2019      |
 |                                                                           |
 *---------------------------------------------------------------------------*
